ethanol
     RDKit          3D

  3  2  0  0  0  0  0  0  0  0999 V2000
   -0.8928    0.2470    0.1164 C   0  0  0  0  0  0  0  0  0  0  0  0
    0.4423   -0.3606   -0.2961 C   0  0  0  0  0  0  0  0  0  0  0  0
    1.5006    0.4560    0.1250 O   0  0  0  0  0  0  0  0  0  0  0  0
  1  2  1  0
  2  3  1  0
M  END
>  <ID>
ET5

$$$$
